OPT_V8/My_Campus_24/network_debug.txt
Pandapower Network Debug Info
==================================================

BUS:
          name  vn_kv type  zone  in_service
0        Bus 8    0.4    b  None        True
1        Bus 9    0.4    b  None        True
2       Bus 10    0.4    b  None        True
3       Bus 11    0.4    b  None        True
4       Bus 16    0.4    b  None        True
5       Bus 17    0.4    b  None        True
6       Bus 18    0.4    b  None        True
7       Bus 19    0.4    b  None        True
8       Bus 20    0.4    b  None        True
9       Bus 21   15.0    b  None        True
10      Bus 22   15.0    b  None        True
11      Bus 23   15.0    b  None        True
12      Bus 24   15.0    b  None        True
13      Bus 25   15.0    b  None        True
14      Bus 26   15.0    b  None        True
15    Sub MV 2   15.0    b  None        True
16    Sub LV 2    0.4    b  None        True
17    Sub MV 5   15.0    b  None        True
18    Sub LV 5    0.4    b  None        True
19  Slack HV 0   70.0    b  None        True
20  Slack MV 0   15.0    b  None        True
21  Slack HV 1   70.0    b  None        True
22  Slack MV 1   15.0    b  None        True
--------------------------------------------------

LOAD:
            name  bus      p_mw    q_mvar  const_z_percent  const_i_percent  sn_mva  scaling  in_service type
0      Load 8 T1    0  0.001191  0.001158              0.0              0.0     NaN      1.0        True  wye
1      Load 8 T2    0  0.000822  0.001179              0.0              0.0     NaN      1.0        True  wye
2      Load 8 T3    0  0.001090  0.001030              0.0              0.0     NaN      1.0        True  wye
3      Load 8 T4    0  0.000994  0.001068              0.0              0.0     NaN      1.0        True  wye
4      Load 8 T5    0  0.001177  0.001153              0.0              0.0     NaN      1.0        True  wye
5      Load 8 T6    0  0.000963  0.001017              0.0              0.0     NaN      1.0        True  wye
6      Load 8 T7    0  0.001168  0.000857              0.0              0.0     NaN      1.0        True  wye
7      Load 8 T8    0  0.000750  0.001008              0.0              0.0     NaN      1.0        True  wye
8      Load 8 T9    0 -0.000004  0.001012              0.0              0.0     NaN      1.0        True  wye
9     Load 8 T10    0 -0.001160  0.000872              0.0              0.0     NaN      1.0        True  wye
10    Load 8 T11    0 -0.001995  0.000837              0.0              0.0     NaN      1.0        True  wye
11    Load 8 T12    0 -0.002120  0.000874              0.0              0.0     NaN      1.0        True  wye
12    Load 8 T13    0 -0.001822  0.001079              0.0              0.0     NaN      1.0        True  wye
13    Load 8 T14    0 -0.001459  0.001125              0.0              0.0     NaN      1.0        True  wye
14    Load 8 T15    0 -0.000352  0.001063              0.0              0.0     NaN      1.0        True  wye
15    Load 8 T16    0  0.000667  0.000971              0.0              0.0     NaN      1.0        True  wye
16    Load 8 T17    0  0.000828  0.000811              0.0              0.0     NaN      1.0        True  wye
17    Load 8 T18    0  0.000868  0.000802              0.0              0.0     NaN      1.0        True  wye
18    Load 8 T19    0  0.000892  0.001062              0.0              0.0     NaN      1.0        True  wye
19    Load 8 T20    0  0.000910  0.001012              0.0              0.0     NaN      1.0        True  wye
20    Load 8 T21    0  0.001111  0.000983              0.0              0.0     NaN      1.0        True  wye
21    Load 8 T22    0  0.000966  0.000869              0.0              0.0     NaN      1.0        True  wye
22    Load 8 T23    0  0.001143  0.000849              0.0              0.0     NaN      1.0        True  wye
23    Load 8 T24    0  0.001159  0.000872              0.0              0.0     NaN      1.0        True  wye
24     Load 9 T1    1  0.001560  0.002179              0.0              0.0     NaN      1.0        True  wye
25     Load 9 T2    1  0.001384  0.002322              0.0              0.0     NaN      1.0        True  wye
26     Load 9 T3    1  0.001533  0.001897              0.0              0.0     NaN      1.0        True  wye
27     Load 9 T4    1  0.001458  0.001656              0.0              0.0     NaN      1.0        True  wye
28     Load 9 T5    1  0.001529  0.001635              0.0              0.0     NaN      1.0        True  wye
29     Load 9 T6    1  0.001647  0.002013              0.0              0.0     NaN      1.0        True  wye
30     Load 9 T7    1  0.001668  0.001725              0.0              0.0     NaN      1.0        True  wye
31     Load 9 T8    1  0.001142  0.002191              0.0              0.0     NaN      1.0        True  wye
32     Load 9 T9    1  0.000209  0.002088              0.0              0.0     NaN      1.0        True  wye
33    Load 9 T10    1 -0.001060  0.002000              0.0              0.0     NaN      1.0        True  wye
34    Load 9 T11    1 -0.002048  0.002137              0.0              0.0     NaN      1.0        True  wye
35    Load 9 T12    1 -0.002517  0.001721              0.0              0.0     NaN      1.0        True  wye
36    Load 9 T13    1 -0.001978  0.001967              0.0              0.0     NaN      1.0        True  wye
37    Load 9 T14    1 -0.001277  0.001637              0.0              0.0     NaN      1.0        True  wye
38    Load 9 T15    1 -0.000361  0.002038              0.0              0.0     NaN      1.0        True  wye
39    Load 9 T16    1  0.001432  0.002235              0.0              0.0     NaN      1.0        True  wye
40    Load 9 T17    1  0.001710  0.001723              0.0              0.0     NaN      1.0        True  wye
41    Load 9 T18    1  0.001652  0.002151              0.0              0.0     NaN      1.0        True  wye
42    Load 9 T19    1  0.001740  0.002395              0.0              0.0     NaN      1.0        True  wye
43    Load 9 T20    1  0.001517  0.001859              0.0              0.0     NaN      1.0        True  wye
44    Load 9 T21    1  0.001603  0.001767              0.0              0.0     NaN      1.0        True  wye
45    Load 9 T22    1  0.001246  0.001802              0.0              0.0     NaN      1.0        True  wye
46    Load 9 T23    1  0.001598  0.002267              0.0              0.0     NaN      1.0        True  wye
47    Load 9 T24    1  0.001288  0.001664              0.0              0.0     NaN      1.0        True  wye
48    Load 10 T1    2  0.001809  0.003233              0.0              0.0     NaN      1.0        True  wye
49    Load 10 T2    2  0.002205  0.002722              0.0              0.0     NaN      1.0        True  wye
50    Load 10 T3    2  0.002310  0.003187              0.0              0.0     NaN      1.0        True  wye
51    Load 10 T4    2  0.002278  0.003009              0.0              0.0     NaN      1.0        True  wye
52    Load 10 T5    2  0.001754  0.003507              0.0              0.0     NaN      1.0        True  wye
53    Load 10 T6    2  0.002038  0.002540              0.0              0.0     NaN      1.0        True  wye
54    Load 10 T7    2  0.001853  0.002942              0.0              0.0     NaN      1.0        True  wye
55    Load 10 T8    2  0.002191  0.003560              0.0              0.0     NaN      1.0        True  wye
56    Load 10 T9    2  0.000676  0.002481              0.0              0.0     NaN      1.0        True  wye
57   Load 10 T10    2 -0.000318  0.003273              0.0              0.0     NaN      1.0        True  wye
58   Load 10 T11    2 -0.000845  0.003480              0.0              0.0     NaN      1.0        True  wye
59   Load 10 T12    2 -0.001285  0.003131              0.0              0.0     NaN      1.0        True  wye
60   Load 10 T13    2 -0.000998  0.002469              0.0              0.0     NaN      1.0        True  wye
61   Load 10 T14    2 -0.000033  0.003331              0.0              0.0     NaN      1.0        True  wye
62   Load 10 T15    2  0.000600  0.002716              0.0              0.0     NaN      1.0        True  wye
63   Load 10 T16    2  0.001615  0.003022              0.0              0.0     NaN      1.0        True  wye
64   Load 10 T17    2  0.002348  0.003380              0.0              0.0     NaN      1.0        True  wye
65   Load 10 T18    2  0.001809  0.002776              0.0              0.0     NaN      1.0        True  wye
66   Load 10 T19    2  0.002236  0.002693              0.0              0.0     NaN      1.0        True  wye
67   Load 10 T20    2  0.002147  0.002540              0.0              0.0     NaN      1.0        True  wye
68   Load 10 T21    2  0.002045  0.002811              0.0              0.0     NaN      1.0        True  wye
69   Load 10 T22    2  0.002119  0.002522              0.0              0.0     NaN      1.0        True  wye
70   Load 10 T23    2  0.002065  0.003234              0.0              0.0     NaN      1.0        True  wye
71   Load 10 T24    2  0.002273  0.003396              0.0              0.0     NaN      1.0        True  wye
72    Load 11 T1    3  0.002528  0.003727              0.0              0.0     NaN      1.0        True  wye
73    Load 11 T2    3  0.002792  0.003324              0.0              0.0     NaN      1.0        True  wye
74    Load 11 T3    3  0.002778  0.003859              0.0              0.0     NaN      1.0        True  wye
75    Load 11 T4    3  0.002265  0.003849              0.0              0.0     NaN      1.0        True  wye
76    Load 11 T5    3  0.002530  0.004235              0.0              0.0     NaN      1.0        True  wye
77    Load 11 T6    3  0.002682  0.004425              0.0              0.0     NaN      1.0        True  wye
78    Load 11 T7    3  0.002520  0.003331              0.0              0.0     NaN      1.0        True  wye
79    Load 11 T8    3  0.002858  0.003955              0.0              0.0     NaN      1.0        True  wye
80    Load 11 T9    3  0.001417  0.004643              0.0              0.0     NaN      1.0        True  wye
81   Load 11 T10    3  0.000323  0.003978              0.0              0.0     NaN      1.0        True  wye
82   Load 11 T11    3 -0.001441  0.004621              0.0              0.0     NaN      1.0        True  wye
83   Load 11 T12    3 -0.001778  0.004640              0.0              0.0     NaN      1.0        True  wye
84   Load 11 T13    3 -0.000984  0.004487              0.0              0.0     NaN      1.0        True  wye
85   Load 11 T14    3 -0.000247  0.004242              0.0              0.0     NaN      1.0        True  wye
86   Load 11 T15    3  0.000641  0.003376              0.0              0.0     NaN      1.0        True  wye
87   Load 11 T16    3  0.002072  0.004773              0.0              0.0     NaN      1.0        True  wye
88   Load 11 T17    3  0.002786  0.003682              0.0              0.0     NaN      1.0        True  wye
89   Load 11 T18    3  0.002796  0.003690              0.0              0.0     NaN      1.0        True  wye
90   Load 11 T19    3  0.002013  0.004006              0.0              0.0     NaN      1.0        True  wye
91   Load 11 T20    3  0.002123  0.004056              0.0              0.0     NaN      1.0        True  wye
92   Load 11 T21    3  0.002720  0.004433              0.0              0.0     NaN      1.0        True  wye
93   Load 11 T22    3  0.002423  0.004063              0.0              0.0     NaN      1.0        True  wye
94   Load 11 T23    3  0.002154  0.004674              0.0              0.0     NaN      1.0        True  wye
95   Load 11 T24    3  0.002949  0.004457              0.0              0.0     NaN      1.0        True  wye
96    Load 16 T1    4  0.002730  0.005571              0.0              0.0     NaN      1.0        True  wye
97    Load 16 T2    4  0.003164  0.004356              0.0              0.0     NaN      1.0        True  wye
98    Load 16 T3    4  0.003001  0.004314              0.0              0.0     NaN      1.0        True  wye
99    Load 16 T4    4  0.003310  0.005806              0.0              0.0     NaN      1.0        True  wye
100   Load 16 T5    4  0.002729  0.004611              0.0              0.0     NaN      1.0        True  wye
101   Load 16 T6    4  0.003351  0.005862              0.0              0.0     NaN      1.0        True  wye
102   Load 16 T7    4  0.003256  0.004020              0.0              0.0     NaN      1.0        True  wye
103   Load 16 T8    4  0.002487  0.004178              0.0              0.0     NaN      1.0        True  wye
104   Load 16 T9    4  0.002174  0.004421              0.0              0.0     NaN      1.0        True  wye
105  Load 16 T10    4  0.000591  0.004781              0.0              0.0     NaN      1.0        True  wye
106  Load 16 T11    4 -0.000297  0.005077              0.0              0.0     NaN      1.0        True  wye
107  Load 16 T12    4 -0.000636  0.004657              0.0              0.0     NaN      1.0        True  wye
108  Load 16 T13    4 -0.000370  0.005927              0.0              0.0     NaN      1.0        True  wye
109  Load 16 T14    4  0.000804  0.005888              0.0              0.0     NaN      1.0        True  wye
110  Load 16 T15    4  0.002037  0.005136              0.0              0.0     NaN      1.0        True  wye
111  Load 16 T16    4  0.002808  0.005971              0.0              0.0     NaN      1.0        True  wye
112  Load 16 T17    4  0.003038  0.005723              0.0              0.0     NaN      1.0        True  wye
113  Load 16 T18    4  0.002963  0.005951              0.0              0.0     NaN      1.0        True  wye
114  Load 16 T19    4  0.002547  0.005173              0.0              0.0     NaN      1.0        True  wye
115  Load 16 T20    4  0.003467  0.004213              0.0              0.0     NaN      1.0        True  wye
116  Load 16 T21    4  0.002904  0.005134              0.0              0.0     NaN      1.0        True  wye
117  Load 16 T22    4  0.002432  0.004098              0.0              0.0     NaN      1.0        True  wye
118  Load 16 T23    4  0.002680  0.004818              0.0              0.0     NaN      1.0        True  wye
119  Load 16 T24    4  0.002760  0.005989              0.0              0.0     NaN      1.0        True  wye
120   Load 17 T1    5  0.003759  0.006699              0.0              0.0     NaN      1.0        True  wye
121   Load 17 T2    5  0.004131  0.006807              0.0              0.0     NaN      1.0        True  wye
122   Load 17 T3    5  0.003793  0.004830              0.0              0.0     NaN      1.0        True  wye
123   Load 17 T4    5  0.003336  0.005007              0.0              0.0     NaN      1.0        True  wye
124   Load 17 T5    5  0.003518  0.006327              0.0              0.0     NaN      1.0        True  wye
125   Load 17 T6    5  0.002972  0.007017              0.0              0.0     NaN      1.0        True  wye
126   Load 17 T7    5  0.003896  0.006318              0.0              0.0     NaN      1.0        True  wye
127   Load 17 T8    5  0.003560  0.005618              0.0              0.0     NaN      1.0        True  wye
128   Load 17 T9    5  0.001694  0.006588              0.0              0.0     NaN      1.0        True  wye
129  Load 17 T10    5  0.000646  0.006986              0.0              0.0     NaN      1.0        True  wye
130  Load 17 T11    5  0.000270  0.004956              0.0              0.0     NaN      1.0        True  wye
131  Load 17 T12    5 -0.001103  0.004887              0.0              0.0     NaN      1.0        True  wye
132  Load 17 T13    5 -0.000625  0.005850              0.0              0.0     NaN      1.0        True  wye
133  Load 17 T14    5  0.000728  0.006511              0.0              0.0     NaN      1.0        True  wye
134  Load 17 T15    5  0.002210  0.006054              0.0              0.0     NaN      1.0        True  wye
135  Load 17 T16    5  0.003379  0.005946              0.0              0.0     NaN      1.0        True  wye
136  Load 17 T17    5  0.003683  0.005181              0.0              0.0     NaN      1.0        True  wye
137  Load 17 T18    5  0.002814  0.005196              0.0              0.0     NaN      1.0        True  wye
138  Load 17 T19    5  0.003599  0.004904              0.0              0.0     NaN      1.0        True  wye
139  Load 17 T20    5  0.003577  0.005918              0.0              0.0     NaN      1.0        True  wye
140  Load 17 T21    5  0.002903  0.005431              0.0              0.0     NaN      1.0        True  wye
141  Load 17 T22    5  0.003541  0.006194              0.0              0.0     NaN      1.0        True  wye
142  Load 17 T23    5  0.003156  0.005924              0.0              0.0     NaN      1.0        True  wye
143  Load 17 T24    5  0.003283  0.005569              0.0              0.0     NaN      1.0        True  wye
144   Load 18 T1    6  0.001122  0.001091              0.0              0.0     NaN      1.0        True  wye
145   Load 18 T2    6  0.001182  0.000846              0.0              0.0     NaN      1.0        True  wye
146   Load 18 T3    6  0.001179  0.001119              0.0              0.0     NaN      1.0        True  wye
147   Load 18 T4    6  0.001296  0.001192              0.0              0.0     NaN      1.0        True  wye
148   Load 18 T5    6  0.001431  0.001155              0.0              0.0     NaN      1.0        True  wye
149   Load 18 T6    6  0.001315  0.000868              0.0              0.0     NaN      1.0        True  wye
150   Load 18 T7    6  0.000960  0.001035              0.0              0.0     NaN      1.0        True  wye
151   Load 18 T8    6  0.001206  0.001178              0.0              0.0     NaN      1.0        True  wye
152   Load 18 T9    6 -0.000008  0.000901              0.0              0.0     NaN      1.0        True  wye
153  Load 18 T10    6 -0.000890  0.001030              0.0              0.0     NaN      1.0        True  wye
154  Load 18 T11    6 -0.001934  0.001052              0.0              0.0     NaN      1.0        True  wye
155  Load 18 T12    6 -0.002136  0.001184              0.0              0.0     NaN      1.0        True  wye
156  Load 18 T13    6 -0.001949  0.001130              0.0              0.0     NaN      1.0        True  wye
157  Load 18 T14    6 -0.001290  0.000987              0.0              0.0     NaN      1.0        True  wye
158  Load 18 T15    6 -0.000311  0.001037              0.0              0.0     NaN      1.0        True  wye
159  Load 18 T16    6  0.001161  0.000882              0.0              0.0     NaN      1.0        True  wye
160  Load 18 T17    6  0.001327  0.001129              0.0              0.0     NaN      1.0        True  wye
161  Load 18 T18    6  0.001156  0.000897              0.0              0.0     NaN      1.0        True  wye
162  Load 18 T19    6  0.001064  0.001066              0.0              0.0     NaN      1.0        True  wye
163  Load 18 T20    6  0.001171  0.000857              0.0              0.0     NaN      1.0        True  wye
164  Load 18 T21    6  0.001015  0.001090              0.0              0.0     NaN      1.0        True  wye
165  Load 18 T22    6  0.001078  0.001123              0.0              0.0     NaN      1.0        True  wye
166  Load 18 T23    6  0.001174  0.000844              0.0              0.0     NaN      1.0        True  wye
167  Load 18 T24    6  0.001390  0.000963              0.0              0.0     NaN      1.0        True  wye
168   Load 19 T1    7  0.001818  0.002351              0.0              0.0     NaN      1.0        True  wye
169   Load 19 T2    7  0.001609  0.002200              0.0              0.0     NaN      1.0        True  wye
170   Load 19 T3    7  0.002112  0.001838              0.0              0.0     NaN      1.0        True  wye
171   Load 19 T4    7  0.002040  0.002047              0.0              0.0     NaN      1.0        True  wye
172   Load 19 T5    7  0.001485  0.002352              0.0              0.0     NaN      1.0        True  wye
173   Load 19 T6    7  0.001616  0.002278              0.0              0.0     NaN      1.0        True  wye
174   Load 19 T7    7  0.001631  0.001979              0.0              0.0     NaN      1.0        True  wye
175   Load 19 T8    7  0.001431  0.001797              0.0              0.0     NaN      1.0        True  wye
176   Load 19 T9    7  0.000687  0.001806              0.0              0.0     NaN      1.0        True  wye
177  Load 19 T10    7 -0.000078  0.001914              0.0              0.0     NaN      1.0        True  wye
178  Load 19 T11    7 -0.000955  0.002235              0.0              0.0     NaN      1.0        True  wye
179  Load 19 T12    7 -0.001125  0.001929              0.0              0.0     NaN      1.0        True  wye
180  Load 19 T13    7 -0.001193  0.002014              0.0              0.0     NaN      1.0        True  wye
181  Load 19 T14    7 -0.000409  0.001758              0.0              0.0     NaN      1.0        True  wye
182  Load 19 T15    7  0.000796  0.001951              0.0              0.0     NaN      1.0        True  wye
183  Load 19 T16    7  0.001365  0.001726              0.0              0.0     NaN      1.0        True  wye
184  Load 19 T17    7  0.001602  0.001639              0.0              0.0     NaN      1.0        True  wye
185  Load 19 T18    7  0.001816  0.001767              0.0              0.0     NaN      1.0        True  wye
186  Load 19 T19    7  0.001799  0.002034              0.0              0.0     NaN      1.0        True  wye
187  Load 19 T20    7  0.001580  0.002122              0.0              0.0     NaN      1.0        True  wye
188  Load 19 T21    7  0.001983  0.002202              0.0              0.0     NaN      1.0        True  wye
189  Load 19 T22    7  0.002149  0.001916              0.0              0.0     NaN      1.0        True  wye
190  Load 19 T23    7  0.001789  0.002141              0.0              0.0     NaN      1.0        True  wye
191  Load 19 T24    7  0.002152  0.002341              0.0              0.0     NaN      1.0        True  wye
192   Load 20 T1    8  0.002246  0.002749              0.0              0.0     NaN      1.0        True  wye
193   Load 20 T2    8  0.001960  0.003016              0.0              0.0     NaN      1.0        True  wye
194   Load 20 T3    8  0.002604  0.002509              0.0              0.0     NaN      1.0        True  wye
195   Load 20 T4    8  0.001889  0.002982              0.0              0.0     NaN      1.0        True  wye
196   Load 20 T5    8  0.002047  0.002535              0.0              0.0     NaN      1.0        True  wye
197   Load 20 T6    8  0.002079  0.002794              0.0              0.0     NaN      1.0        True  wye
198   Load 20 T7    8  0.002425  0.003162              0.0              0.0     NaN      1.0        True  wye
199   Load 20 T8    8  0.002200  0.003276              0.0              0.0     NaN      1.0        True  wye
200   Load 20 T9    8  0.000157  0.003573              0.0              0.0     NaN      1.0        True  wye
201  Load 20 T10    8 -0.000733  0.003223              0.0              0.0     NaN      1.0        True  wye
202  Load 20 T11    8 -0.001862  0.002512              0.0              0.0     NaN      1.0        True  wye
203  Load 20 T12    8 -0.002298  0.003153              0.0              0.0     NaN      1.0        True  wye
204  Load 20 T13    8 -0.002152  0.002728              0.0              0.0     NaN      1.0        True  wye
205  Load 20 T14    8 -0.000937  0.002674              0.0              0.0     NaN      1.0        True  wye
206  Load 20 T15    8  0.000686  0.003191              0.0              0.0     NaN      1.0        True  wye
207  Load 20 T16    8  0.002451  0.002802              0.0              0.0     NaN      1.0        True  wye
208  Load 20 T17    8  0.001954  0.003464              0.0              0.0     NaN      1.0        True  wye
209  Load 20 T18    8  0.002013  0.003025              0.0              0.0     NaN      1.0        True  wye
210  Load 20 T19    8  0.002318  0.002597              0.0              0.0     NaN      1.0        True  wye
211  Load 20 T20    8  0.002272  0.002559              0.0              0.0     NaN      1.0        True  wye
212  Load 20 T21    8  0.002087  0.002457              0.0              0.0     NaN      1.0        True  wye
213  Load 20 T22    8  0.001897  0.003516              0.0              0.0     NaN      1.0        True  wye
214  Load 20 T23    8  0.002492  0.003510              0.0              0.0     NaN      1.0        True  wye
215  Load 20 T24    8  0.002092  0.002953              0.0              0.0     NaN      1.0        True  wye
216   Load 21 T1    9  0.010916  0.009171              0.0              0.0     NaN      1.0        True  wye
217   Load 21 T2    9  0.010899  0.009749              0.0              0.0     NaN      1.0        True  wye
218   Load 21 T3    9  0.010622  0.011664              0.0              0.0     NaN      1.0        True  wye
219   Load 21 T4    9  0.010952  0.011727              0.0              0.0     NaN      1.0        True  wye
220   Load 21 T5    9  0.008316  0.008678              0.0              0.0     NaN      1.0        True  wye
221   Load 21 T6    9  0.010571  0.010168              0.0              0.0     NaN      1.0        True  wye
222   Load 21 T7    9  0.009848  0.011519              0.0              0.0     NaN      1.0        True  wye
223   Load 21 T8    9  0.009431  0.011981              0.0              0.0     NaN      1.0        True  wye
224   Load 21 T9    9  0.007312  0.010138              0.0              0.0     NaN      1.0        True  wye
225  Load 21 T10    9  0.007959  0.008788              0.0              0.0     NaN      1.0        True  wye
226  Load 21 T11    9  0.007594  0.010781              0.0              0.0     NaN      1.0        True  wye
227  Load 21 T12    9  0.006919  0.008375              0.0              0.0     NaN      1.0        True  wye
228  Load 21 T13    9  0.004713  0.011023              0.0              0.0     NaN      1.0        True  wye
229  Load 21 T14    9  0.005415  0.011425              0.0              0.0     NaN      1.0        True  wye
230  Load 21 T15    9  0.009012  0.011495              0.0              0.0     NaN      1.0        True  wye
231  Load 21 T16    9  0.010444  0.011010              0.0              0.0     NaN      1.0        True  wye
232  Load 21 T17    9  0.008346  0.008771              0.0              0.0     NaN      1.0        True  wye
233  Load 21 T18    9  0.008181  0.010083              0.0              0.0     NaN      1.0        True  wye
234  Load 21 T19    9  0.011513  0.008940              0.0              0.0     NaN      1.0        True  wye
235  Load 21 T20    9  0.011966  0.008163              0.0              0.0     NaN      1.0        True  wye
236  Load 21 T21    9  0.011513  0.011258              0.0              0.0     NaN      1.0        True  wye
237  Load 21 T22    9  0.010456  0.008264              0.0              0.0     NaN      1.0        True  wye
238  Load 21 T23    9  0.008265  0.010387              0.0              0.0     NaN      1.0        True  wye
239  Load 21 T24    9  0.009254  0.009243              0.0              0.0     NaN      1.0        True  wye
240   Load 22 T1   10  0.010310  0.010220              0.0              0.0     NaN      1.0        True  wye
241   Load 22 T2   10  0.011624  0.010558              0.0              0.0     NaN      1.0        True  wye
242   Load 22 T3   10  0.012923  0.010744              0.0              0.0     NaN      1.0        True  wye
243   Load 22 T4   10  0.009342  0.009055              0.0              0.0     NaN      1.0        True  wye
244   Load 22 T5   10  0.011835  0.008110              0.0              0.0     NaN      1.0        True  wye
245   Load 22 T6   10  0.011017  0.009630              0.0              0.0     NaN      1.0        True  wye
246   Load 22 T7   10  0.012842  0.009414              0.0              0.0     NaN      1.0        True  wye
247   Load 22 T8   10  0.010039  0.010715              0.0              0.0     NaN      1.0        True  wye
248   Load 22 T9   10  0.011512  0.008548              0.0              0.0     NaN      1.0        True  wye
249  Load 22 T10   10  0.008847  0.010315              0.0              0.0     NaN      1.0        True  wye
250  Load 22 T11   10  0.005437  0.008840              0.0              0.0     NaN      1.0        True  wye
251  Load 22 T12   10  0.005788  0.009210              0.0              0.0     NaN      1.0        True  wye
252  Load 22 T13   10  0.007618  0.009838              0.0              0.0     NaN      1.0        True  wye
253  Load 22 T14   10  0.008668  0.008997              0.0              0.0     NaN      1.0        True  wye
254  Load 22 T15   10  0.011228  0.007315              0.0              0.0     NaN      1.0        True  wye
255  Load 22 T16   10  0.010829  0.007861              0.0              0.0     NaN      1.0        True  wye
256  Load 22 T17   10  0.012586  0.009631              0.0              0.0     NaN      1.0        True  wye
257  Load 22 T18   10  0.011322  0.009631              0.0              0.0     NaN      1.0        True  wye
258  Load 22 T19   10  0.010628  0.008517              0.0              0.0     NaN      1.0        True  wye
259  Load 22 T20   10  0.012700  0.008532              0.0              0.0     NaN      1.0        True  wye
260  Load 22 T21   10  0.011531  0.010100              0.0              0.0     NaN      1.0        True  wye
261  Load 22 T22   10  0.009755  0.008179              0.0              0.0     NaN      1.0        True  wye
262  Load 22 T23   10  0.010595  0.007760              0.0              0.0     NaN      1.0        True  wye
263  Load 22 T24   10  0.009341  0.007884              0.0              0.0     NaN      1.0        True  wye
264   Load 23 T1   11  0.011829  0.009846              0.0              0.0     NaN      1.0        True  wye
265   Load 23 T2   11  0.011709  0.011293              0.0              0.0     NaN      1.0        True  wye
266   Load 23 T3   11  0.014360  0.009862              0.0              0.0     NaN      1.0        True  wye
267   Load 23 T4   11  0.009752  0.010777              0.0              0.0     NaN      1.0        True  wye
268   Load 23 T5   11  0.013187  0.009943              0.0              0.0     NaN      1.0        True  wye
269   Load 23 T6   11  0.011042  0.012255              0.0              0.0     NaN      1.0        True  wye
270   Load 23 T7   11  0.011292  0.009287              0.0              0.0     NaN      1.0        True  wye
271   Load 23 T8   11  0.010598  0.012228              0.0              0.0     NaN      1.0        True  wye
272   Load 23 T9   11  0.009570  0.008978              0.0              0.0     NaN      1.0        True  wye
273  Load 23 T10   11  0.007241  0.011746              0.0              0.0     NaN      1.0        True  wye
274  Load 23 T11   11  0.006665  0.010029              0.0              0.0     NaN      1.0        True  wye
275  Load 23 T12   11  0.008048  0.010549              0.0              0.0     NaN      1.0        True  wye
276  Load 23 T13   11  0.010778  0.009671              0.0              0.0     NaN      1.0        True  wye
277  Load 23 T14   11  0.007182  0.010463              0.0              0.0     NaN      1.0        True  wye
278  Load 23 T15   11  0.011188  0.011573              0.0              0.0     NaN      1.0        True  wye
279  Load 23 T16   11  0.010747  0.011580              0.0              0.0     NaN      1.0        True  wye
280  Load 23 T17   11  0.011534  0.011700              0.0              0.0     NaN      1.0        True  wye
281  Load 23 T18   11  0.010675  0.009758              0.0              0.0     NaN      1.0        True  wye
282  Load 23 T19   11  0.012484  0.011064              0.0              0.0     NaN      1.0        True  wye
283  Load 23 T20   11  0.011030  0.012581              0.0              0.0     NaN      1.0        True  wye
284  Load 23 T21   11  0.011041  0.010889              0.0              0.0     NaN      1.0        True  wye
285  Load 23 T22   11  0.010293  0.012493              0.0              0.0     NaN      1.0        True  wye
286  Load 23 T23   11  0.011851  0.012309              0.0              0.0     NaN      1.0        True  wye
287  Load 23 T24   11  0.013259  0.009212              0.0              0.0     NaN      1.0        True  wye
288   Load 24 T1   12  0.009515  0.004868              0.0              0.0     NaN      1.0        True  wye
289   Load 24 T2   12  0.010859  0.007088              0.0              0.0     NaN      1.0        True  wye
290   Load 24 T3   12  0.008174  0.005452              0.0              0.0     NaN      1.0        True  wye
291   Load 24 T4   12  0.010845  0.005976              0.0              0.0     NaN      1.0        True  wye
292   Load 24 T5   12  0.011842  0.006262              0.0              0.0     NaN      1.0        True  wye
293   Load 24 T6   12  0.011454  0.006225              0.0              0.0     NaN      1.0        True  wye
294   Load 24 T7   12  0.011907  0.006837              0.0              0.0     NaN      1.0        True  wye
295   Load 24 T8   12  0.008449  0.005394              0.0              0.0     NaN      1.0        True  wye
296   Load 24 T9   12  0.008401  0.005969              0.0              0.0     NaN      1.0        True  wye
297  Load 24 T10   12  0.007168  0.006360              0.0              0.0     NaN      1.0        True  wye
298  Load 24 T11   12  0.007926  0.005166              0.0              0.0     NaN      1.0        True  wye
299  Load 24 T12   12  0.005375  0.005763              0.0              0.0     NaN      1.0        True  wye
300  Load 24 T13   12  0.009042  0.006406              0.0              0.0     NaN      1.0        True  wye
301  Load 24 T14   12  0.007356  0.004890              0.0              0.0     NaN      1.0        True  wye
302  Load 24 T15   12  0.007828  0.005017              0.0              0.0     NaN      1.0        True  wye
303  Load 24 T16   12  0.010461  0.005626              0.0              0.0     NaN      1.0        True  wye
304  Load 24 T17   12  0.010504  0.006155              0.0              0.0     NaN      1.0        True  wye
305  Load 24 T18   12  0.011231  0.005860              0.0              0.0     NaN      1.0        True  wye
306  Load 24 T19   12  0.009216  0.006365              0.0              0.0     NaN      1.0        True  wye
307  Load 24 T20   12  0.010493  0.006025              0.0              0.0     NaN      1.0        True  wye
308  Load 24 T21   12  0.009750  0.006366              0.0              0.0     NaN      1.0        True  wye
309  Load 24 T22   12  0.009610  0.006977              0.0              0.0     NaN      1.0        True  wye
310  Load 24 T23   12  0.010447  0.006649              0.0              0.0     NaN      1.0        True  wye
311  Load 24 T24   12  0.011688  0.005160              0.0              0.0     NaN      1.0        True  wye
312   Load 25 T1   13  0.011773  0.011684              0.0              0.0     NaN      1.0        True  wye
313   Load 25 T2   13  0.010404  0.010369              0.0              0.0     NaN      1.0        True  wye
314   Load 25 T3   13  0.011580  0.011225              0.0              0.0     NaN      1.0        True  wye
315   Load 25 T4   13  0.010089  0.008698              0.0              0.0     NaN      1.0        True  wye
316   Load 25 T5   13  0.011791  0.011133              0.0              0.0     NaN      1.0        True  wye
317   Load 25 T6   13  0.010825  0.008415              0.0              0.0     NaN      1.0        True  wye
318   Load 25 T7   13  0.011574  0.011733              0.0              0.0     NaN      1.0        True  wye
319   Load 25 T8   13  0.013431  0.011794              0.0              0.0     NaN      1.0        True  wye
320   Load 25 T9   13  0.012469  0.008131              0.0              0.0     NaN      1.0        True  wye
321  Load 25 T10   13  0.007263  0.011689              0.0              0.0     NaN      1.0        True  wye
322  Load 25 T11   13  0.008662  0.010612              0.0              0.0     NaN      1.0        True  wye
323  Load 25 T12   13  0.009439  0.010993              0.0              0.0     NaN      1.0        True  wye
324  Load 25 T13   13  0.007018  0.011949              0.0              0.0     NaN      1.0        True  wye
325  Load 25 T14   13  0.010928  0.009991              0.0              0.0     NaN      1.0        True  wye
326  Load 25 T15   13  0.009595  0.010760              0.0              0.0     NaN      1.0        True  wye
327  Load 25 T16   13  0.014096  0.011117              0.0              0.0     NaN      1.0        True  wye
328  Load 25 T17   13  0.011363  0.010150              0.0              0.0     NaN      1.0        True  wye
329  Load 25 T18   13  0.012436  0.011111              0.0              0.0     NaN      1.0        True  wye
330  Load 25 T19   13  0.012868  0.011767              0.0              0.0     NaN      1.0        True  wye
331  Load 25 T20   13  0.011473  0.011225              0.0              0.0     NaN      1.0        True  wye
332  Load 25 T21   13  0.013684  0.011556              0.0              0.0     NaN      1.0        True  wye
333  Load 25 T22   13  0.010226  0.010462              0.0              0.0     NaN      1.0        True  wye
334  Load 25 T23   13  0.013221  0.008224              0.0              0.0     NaN      1.0        True  wye
335  Load 25 T24   13  0.013363  0.008459              0.0              0.0     NaN      1.0        True  wye
336   Load 26 T1   14  0.014182  0.013425              0.0              0.0     NaN      1.0        True  wye
337   Load 26 T2   14  0.014927  0.011529              0.0              0.0     NaN      1.0        True  wye
338   Load 26 T3   14  0.011815  0.009968              0.0              0.0     NaN      1.0        True  wye
339   Load 26 T4   14  0.013580  0.011096              0.0              0.0     NaN      1.0        True  wye
340   Load 26 T5   14  0.011258  0.013270              0.0              0.0     NaN      1.0        True  wye
341   Load 26 T6   14  0.015528  0.010967              0.0              0.0     NaN      1.0        True  wye
342   Load 26 T7   14  0.014602  0.009732              0.0              0.0     NaN      1.0        True  wye
343   Load 26 T8   14  0.014457  0.014034              0.0              0.0     NaN      1.0        True  wye
344   Load 26 T9   14  0.013527  0.013491              0.0              0.0     NaN      1.0        True  wye
345  Load 26 T10   14  0.012205  0.010626              0.0              0.0     NaN      1.0        True  wye
346  Load 26 T11   14  0.006941  0.013218              0.0              0.0     NaN      1.0        True  wye
347  Load 26 T12   14  0.009607  0.012332              0.0              0.0     NaN      1.0        True  wye
348  Load 26 T13   14  0.008504  0.013396              0.0              0.0     NaN      1.0        True  wye
349  Load 26 T14   14  0.010290  0.010104              0.0              0.0     NaN      1.0        True  wye
350  Load 26 T15   14  0.009221  0.013147              0.0              0.0     NaN      1.0        True  wye
351  Load 26 T16   14  0.012478  0.013863              0.0              0.0     NaN      1.0        True  wye
352  Load 26 T17   14  0.015464  0.013101              0.0              0.0     NaN      1.0        True  wye
353  Load 26 T18   14  0.013732  0.014335              0.0              0.0     NaN      1.0        True  wye
354  Load 26 T19   14  0.014143  0.011011              0.0              0.0     NaN      1.0        True  wye
355  Load 26 T20   14  0.014461  0.012708              0.0              0.0     NaN      1.0        True  wye
356  Load 26 T21   14  0.014173  0.010134              0.0              0.0     NaN      1.0        True  wye
357  Load 26 T22   14  0.010879  0.009757              0.0              0.0     NaN      1.0        True  wye
358  Load 26 T23   14  0.013130  0.010487              0.0              0.0     NaN      1.0        True  wye
359  Load 26 T24   14  0.013852  0.013382              0.0              0.0     NaN      1.0        True  wye
--------------------------------------------------

EXT_GRID:
        name  bus  vm_pu  va_degree  slack_weight  in_service
0  ExtGrid 0   19    1.0        0.0           1.0        True
1  ExtGrid 1   21    1.0        0.0           1.0        True
--------------------------------------------------

LINE:
       name std_type  from_bus  to_bus  length_km  r_ohm_per_km  x_ohm_per_km  c_nf_per_km  g_us_per_km  max_i_ka   df  parallel  type  in_service
0    Line 0     None        20      15   0.400000        0.5502         0.429          0.0          0.0      0.23  1.0         1  None        True
1    Line 7     None        22      17   1.100000        0.5502         0.429          0.0          0.0      0.23  1.0         1  None        True
2    Line 8     None        15       9   0.316228        0.5502         0.429          0.0          0.0      0.23  1.0         1  None        True
3   Line 17     None        17      12   0.141421        0.5502         0.429          0.0          0.0      0.23  1.0         1  None        True
4   Line 19     None        17      14   0.223607        0.5502         0.429          0.0          0.0      0.23  1.0         1  None        True
5   Line 20     None        16       0   0.136015        0.5502         0.429          0.0          0.0      0.23  1.0         1  None        True
6   Line 34     None        18       5   0.225610        0.5502         0.429          0.0          0.0      0.23  1.0         1  None        True
7   Line 36     None        18       7   0.196469        0.5502         0.429          0.0          0.0      0.23  1.0         1  None        True
8   Line 37     None        18       8   0.050000        0.5502         0.429          0.0          0.0      0.23  1.0         1  None        True
9   Line 38     None        10       9   0.141421        0.5502         0.429          0.0          0.0      0.23  1.0         1  None        True
10  Line 40     None        11      10   0.200000        0.5502         0.429          0.0          0.0      0.23  1.0         1  None        True
11  Line 43     None        14      13   0.200000        0.5502         0.429          0.0          0.0      0.23  1.0         1  None        True
12  Line 44     None         1       0   0.172047        0.5502         0.429          0.0          0.0      0.23  1.0         1  None        True
13  Line 46     None         3       0   0.194165        0.5502         0.429          0.0          0.0      0.23  1.0         1  None        True
14  Line 47     None         2       1   0.263059        0.5502         0.429          0.0          0.0      0.23  1.0         1  None        True
15  Line 52     None         8       4   0.353836        0.5502         0.429          0.0          0.0      0.23  1.0         1  None        True
16  Line 53     None         6       5   0.253180        0.5502         0.429          0.0          0.0      0.23  1.0         1  None        True
--------------------------------------------------

TRAFO:
                  name std_type  hv_bus  lv_bus  sn_mva  vn_hv_kv  vn_lv_kv  vk_percent  vkr_percent  pfe_kw  i0_percent  shift_degree tap_side  tap_neutral  tap_min  tap_max  tap_step_percent  tap_step_degree  tap_pos  tap_phase_shifter  parallel   df  in_service
0  MV/LV Transformer 2     None      15      16    10.0      15.0       0.4        0.01         0.01    0.01        0.01           0.0     None          NaN      NaN      NaN               NaN              NaN      NaN              False         1  1.0        True
1  MV/LV Transformer 5     None      17      18    10.0      15.0       0.4        0.01         0.01    0.01        0.01           0.0     None          NaN      NaN      NaN               NaN              NaN      NaN              False         1  1.0        True
2  Slack Transformer 0     None      19      20    40.0      70.0      15.0        0.01         0.01    0.01        0.01           0.0     None          NaN      NaN      NaN               NaN              NaN      NaN              False         1  1.0        True
3  Slack Transformer 1     None      21      22    40.0      70.0      15.0        0.01         0.01    0.01        0.01           0.0     None          NaN      NaN      NaN               NaN              NaN      NaN              False         1  1.0        True
--------------------------------------------------

BUS_GEODATA:
        x      y
0    11.0   48.0
1    25.0   38.0
2    51.0   42.0
3     0.0   64.0
4   129.0  138.0
5   105.0   88.0
6   130.0   92.0
7    81.0  115.0
8   103.0  114.0
9    10.0   70.0
10   20.0   80.0
11   40.0   80.0
12   90.0  120.0
13  120.0  120.0
14  120.0  100.0
15    0.0   40.0
16    0.5   39.5
17  100.0  110.0
18  100.5  109.5
19    0.0    0.0
20    0.5   -0.5
21  100.0    0.0
22  100.5   -0.5
--------------------------------------------------

RES_BUS:
       vm_pu  va_degree      p_mw    q_mvar
0   0.992453   0.119481  0.001159  0.000872
1   0.987942   0.198439  0.001288  0.001664
2   0.983415   0.285046  0.002273  0.003396
3   0.988111   0.203662  0.002949  0.004457
4   0.988559   0.323172  0.002760  0.005989
5   0.992125   0.130402  0.003283  0.005569
6   0.990243   0.124253  0.001390  0.000963
7   0.997072   0.026744  0.002152  0.002341
8   0.997714   0.051945  0.002092  0.002953
9   0.999892   0.000459  0.009254  0.009243
10  0.999879   0.000449  0.009341  0.007884
11  0.999869   0.000417  0.013259  0.009212
12  0.999762   0.000910  0.011688  0.005160
13  0.999733   0.000953  0.013363  0.008459
14  0.999743   0.001008  0.013852  0.013382
15  0.999932   0.000393  0.000000  0.000000
16  0.999932   0.000399  0.000000  0.000000
17  0.999767   0.000989  0.000000  0.000000
18  0.999767   0.000999  0.000000  0.000000
19  1.000000   0.000000 -0.039687 -0.041841
20  1.000000   0.000006  0.000000  0.000000
21  1.000000   0.000000 -0.050746 -0.049928
22  1.000000   0.000007  0.000000  0.000000
--------------------------------------------------

RES_LINE:
    p_from_mw  q_from_mvar   p_to_mw  q_to_mvar         pl_mw       ql_mvar  i_from_ka   i_to_ka      i_ka  vm_from_pu  va_from_degree  vm_to_pu  va_to_degree  loading_percent
0    0.039677     0.037841 -0.039674  -0.037838  2.940456e-06  2.292722e-06   0.002110  0.002110  0.002110    1.000000        0.000006  0.999932      0.000393         0.917548
1    0.050736     0.045928 -0.050724  -0.045919  1.259820e-05  9.823021e-06   0.002634  0.002634  0.002634    1.000000        0.000007  0.999767      0.000989         1.145273
2    0.031856     0.026341 -0.031855  -0.026340  1.321453e-06  1.030358e-06   0.001591  0.001591  0.001591    0.999932        0.000393  0.999892      0.000459         0.691794
3    0.011688     0.005160 -0.011688  -0.005160  5.647250e-08  4.403254e-08   0.000492  0.000492  0.000492    0.999767        0.000989  0.999762      0.000910         0.213851
4    0.027216     0.021842 -0.027215  -0.021842  6.661937e-07  5.194422e-07   0.001343  0.001343  0.001343    0.999767        0.000989  0.999743      0.001008         0.584129
5    0.007808     0.010498 -0.007728  -0.010435  8.006954e-05  6.243154e-05   0.018885  0.018885  0.018885    0.999932        0.000399  0.992453      0.119481         8.210923
6    0.004727     0.006573 -0.004676  -0.006533  5.087438e-05  3.966760e-05   0.011688  0.011688  0.011688    0.999767        0.000999  0.992125      0.130402         5.081845
7    0.002159     0.002346 -0.002152  -0.002341  6.871447e-06  5.357781e-06   0.004603  0.004603  0.004603    0.999767        0.000999  0.997072      0.026744         2.001375
8    0.004924     0.008998 -0.004906  -0.008984  1.809837e-05  1.411160e-05   0.014809  0.014809  0.014809    0.999767        0.000999  0.997714      0.051945         6.438519
9   -0.022601    -0.017097  0.022601   0.017097  2.777921e-07  2.165991e-07   0.001091  0.001091  0.001091    0.999879        0.000449  0.999892      0.000459         0.474301
10  -0.013259    -0.009212  0.013259   0.009212  1.275206e-07  9.942993e-08   0.000622  0.000622  0.000622    0.999869        0.000417  0.999879      0.000449         0.270226
11   0.013364     0.008459 -0.013363  -0.008459  1.224022e-07  9.543903e-08   0.000609  0.000609  0.000609    0.999743        0.001008  0.999733      0.000953         0.264747
12  -0.003576    -0.005072  0.003600   0.005091  2.334947e-05  1.820597e-05   0.009068  0.009068  0.009068    0.987942        0.198439  0.992453      0.119481         3.942456
13  -0.002949    -0.004457  0.002969   0.004473  1.953516e-05  1.523189e-05   0.007807  0.007807  0.007807    0.988111        0.203662  0.992453      0.119481         3.394489
14  -0.002273    -0.003396  0.002289   0.003408  1.561907e-05  1.217845e-05   0.005998  0.005998  0.005998    0.983415        0.285046  0.987942      0.198439         2.607668
15   0.002814     0.006031 -0.002760  -0.005989  5.413841e-05  4.221261e-05   0.009628  0.009628  0.009628    0.997714        0.051945  0.988559      0.323172         4.186036
16  -0.001390    -0.000963  0.001392   0.000965  2.537512e-06  1.978540e-06   0.002464  0.002464  0.002464    0.990243        0.124253  0.992125      0.130402         1.071373
--------------------------------------------------

RES_TRAFO:
    p_hv_mw  q_hv_mvar   p_lv_mw  q_lv_mvar    pl_mw   ql_mvar   i_hv_ka   i_lv_ka  vm_hv_pu  va_hv_degree  vm_lv_pu  va_lv_degree  loading_percent
0  0.007818   0.011498 -0.007808  -0.010498  0.00001  0.001000  0.000535  0.018885  0.999932      0.000393  0.999932      0.000399         0.139047
1  0.011820   0.018917 -0.011810  -0.017917  0.00001  0.000999  0.000859  0.030981  0.999767      0.000989  0.999767      0.000999         0.223110
2  0.039687   0.041841 -0.039677  -0.037841  0.00001  0.004000  0.000476  0.002110  1.000000      0.000000  1.000000      0.000006         0.144172
3  0.050746   0.049928 -0.050736  -0.045928  0.00001  0.004000  0.000587  0.002634  1.000000      0.000000  1.000000      0.000007         0.177975
--------------------------------------------------

RES_EXT_GRID:
       p_mw    q_mvar
0  0.039687  0.041841
1  0.050746  0.049928
--------------------------------------------------

RES_LOAD:
         p_mw    q_mvar
0    0.000000  0.000000
1    0.000000  0.000000
2    0.000000  0.000000
3    0.000000  0.000000
4    0.000000  0.000000
5    0.000000  0.000000
6    0.000000  0.000000
7    0.000000  0.000000
8   -0.000000  0.000000
9   -0.000000  0.000000
10  -0.000000  0.000000
11  -0.000000  0.000000
12  -0.000000  0.000000
13  -0.000000  0.000000
14  -0.000000  0.000000
15   0.000000  0.000000
16   0.000000  0.000000
17   0.000000  0.000000
18   0.000000  0.000000
19   0.000000  0.000000
20   0.000000  0.000000
21   0.000000  0.000000
22   0.000000  0.000000
23   0.001159  0.000872
24   0.000000  0.000000
25   0.000000  0.000000
26   0.000000  0.000000
27   0.000000  0.000000
28   0.000000  0.000000
29   0.000000  0.000000
30   0.000000  0.000000
31   0.000000  0.000000
32   0.000000  0.000000
33  -0.000000  0.000000
34  -0.000000  0.000000
35  -0.000000  0.000000
36  -0.000000  0.000000
37  -0.000000  0.000000
38  -0.000000  0.000000
39   0.000000  0.000000
40   0.000000  0.000000
41   0.000000  0.000000
42   0.000000  0.000000
43   0.000000  0.000000
44   0.000000  0.000000
45   0.000000  0.000000
46   0.000000  0.000000
47   0.001288  0.001664
48   0.000000  0.000000
49   0.000000  0.000000
50   0.000000  0.000000
51   0.000000  0.000000
52   0.000000  0.000000
53   0.000000  0.000000
54   0.000000  0.000000
55   0.000000  0.000000
56   0.000000  0.000000
57  -0.000000  0.000000
58  -0.000000  0.000000
59  -0.000000  0.000000
60  -0.000000  0.000000
61  -0.000000  0.000000
62   0.000000  0.000000
63   0.000000  0.000000
64   0.000000  0.000000
65   0.000000  0.000000
66   0.000000  0.000000
67   0.000000  0.000000
68   0.000000  0.000000
69   0.000000  0.000000
70   0.000000  0.000000
71   0.002273  0.003396
72   0.000000  0.000000
73   0.000000  0.000000
74   0.000000  0.000000
75   0.000000  0.000000
76   0.000000  0.000000
77   0.000000  0.000000
78   0.000000  0.000000
79   0.000000  0.000000
80   0.000000  0.000000
81   0.000000  0.000000
82  -0.000000  0.000000
83  -0.000000  0.000000
84  -0.000000  0.000000
85  -0.000000  0.000000
86   0.000000  0.000000
87   0.000000  0.000000
88   0.000000  0.000000
89   0.000000  0.000000
90   0.000000  0.000000
91   0.000000  0.000000
92   0.000000  0.000000
93   0.000000  0.000000
94   0.000000  0.000000
95   0.002949  0.004457
96   0.000000  0.000000
97   0.000000  0.000000
98   0.000000  0.000000
99   0.000000  0.000000
100  0.000000  0.000000
101  0.000000  0.000000
102  0.000000  0.000000
103  0.000000  0.000000
104  0.000000  0.000000
105  0.000000  0.000000
106 -0.000000  0.000000
107 -0.000000  0.000000
108 -0.000000  0.000000
109  0.000000  0.000000
110  0.000000  0.000000
111  0.000000  0.000000
112  0.000000  0.000000
113  0.000000  0.000000
114  0.000000  0.000000
115  0.000000  0.000000
116  0.000000  0.000000
117  0.000000  0.000000
118  0.000000  0.000000
119  0.002760  0.005989
120  0.000000  0.000000
121  0.000000  0.000000
122  0.000000  0.000000
123  0.000000  0.000000
124  0.000000  0.000000
125  0.000000  0.000000
126  0.000000  0.000000
127  0.000000  0.000000
128  0.000000  0.000000
129  0.000000  0.000000
130  0.000000  0.000000
131 -0.000000  0.000000
132 -0.000000  0.000000
133  0.000000  0.000000
134  0.000000  0.000000
135  0.000000  0.000000
136  0.000000  0.000000
137  0.000000  0.000000
138  0.000000  0.000000
139  0.000000  0.000000
140  0.000000  0.000000
141  0.000000  0.000000
142  0.000000  0.000000
143  0.003283  0.005569
144  0.000000  0.000000
145  0.000000  0.000000
146  0.000000  0.000000
147  0.000000  0.000000
148  0.000000  0.000000
149  0.000000  0.000000
150  0.000000  0.000000
151  0.000000  0.000000
152 -0.000000  0.000000
153 -0.000000  0.000000
154 -0.000000  0.000000
155 -0.000000  0.000000
156 -0.000000  0.000000
157 -0.000000  0.000000
158 -0.000000  0.000000
159  0.000000  0.000000
160  0.000000  0.000000
161  0.000000  0.000000
162  0.000000  0.000000
163  0.000000  0.000000
164  0.000000  0.000000
165  0.000000  0.000000
166  0.000000  0.000000
167  0.001390  0.000963
168  0.000000  0.000000
169  0.000000  0.000000
170  0.000000  0.000000
171  0.000000  0.000000
172  0.000000  0.000000
173  0.000000  0.000000
174  0.000000  0.000000
175  0.000000  0.000000
176  0.000000  0.000000
177 -0.000000  0.000000
178 -0.000000  0.000000
179 -0.000000  0.000000
180 -0.000000  0.000000
181 -0.000000  0.000000
182  0.000000  0.000000
183  0.000000  0.000000
184  0.000000  0.000000
185  0.000000  0.000000
186  0.000000  0.000000
187  0.000000  0.000000
188  0.000000  0.000000
189  0.000000  0.000000
190  0.000000  0.000000
191  0.002152  0.002341
192  0.000000  0.000000
193  0.000000  0.000000
194  0.000000  0.000000
195  0.000000  0.000000
196  0.000000  0.000000
197  0.000000  0.000000
198  0.000000  0.000000
199  0.000000  0.000000
200  0.000000  0.000000
201 -0.000000  0.000000
202 -0.000000  0.000000
203 -0.000000  0.000000
204 -0.000000  0.000000
205 -0.000000  0.000000
206  0.000000  0.000000
207  0.000000  0.000000
208  0.000000  0.000000
209  0.000000  0.000000
210  0.000000  0.000000
211  0.000000  0.000000
212  0.000000  0.000000
213  0.000000  0.000000
214  0.000000  0.000000
215  0.002092  0.002953
216  0.000000  0.000000
217  0.000000  0.000000
218  0.000000  0.000000
219  0.000000  0.000000
220  0.000000  0.000000
221  0.000000  0.000000
222  0.000000  0.000000
223  0.000000  0.000000
224  0.000000  0.000000
225  0.000000  0.000000
226  0.000000  0.000000
227  0.000000  0.000000
228  0.000000  0.000000
229  0.000000  0.000000
230  0.000000  0.000000
231  0.000000  0.000000
232  0.000000  0.000000
233  0.000000  0.000000
234  0.000000  0.000000
235  0.000000  0.000000
236  0.000000  0.000000
237  0.000000  0.000000
238  0.000000  0.000000
239  0.009254  0.009243
240  0.000000  0.000000
241  0.000000  0.000000
242  0.000000  0.000000
243  0.000000  0.000000
244  0.000000  0.000000
245  0.000000  0.000000
246  0.000000  0.000000
247  0.000000  0.000000
248  0.000000  0.000000
249  0.000000  0.000000
250  0.000000  0.000000
251  0.000000  0.000000
252  0.000000  0.000000
253  0.000000  0.000000
254  0.000000  0.000000
255  0.000000  0.000000
256  0.000000  0.000000
257  0.000000  0.000000
258  0.000000  0.000000
259  0.000000  0.000000
260  0.000000  0.000000
261  0.000000  0.000000
262  0.000000  0.000000
263  0.009341  0.007884
264  0.000000  0.000000
265  0.000000  0.000000
266  0.000000  0.000000
267  0.000000  0.000000
268  0.000000  0.000000
269  0.000000  0.000000
270  0.000000  0.000000
271  0.000000  0.000000
272  0.000000  0.000000
273  0.000000  0.000000
274  0.000000  0.000000
275  0.000000  0.000000
276  0.000000  0.000000
277  0.000000  0.000000
278  0.000000  0.000000
279  0.000000  0.000000
280  0.000000  0.000000
281  0.000000  0.000000
282  0.000000  0.000000
283  0.000000  0.000000
284  0.000000  0.000000
285  0.000000  0.000000
286  0.000000  0.000000
287  0.013259  0.009212
288  0.000000  0.000000
289  0.000000  0.000000
290  0.000000  0.000000
291  0.000000  0.000000
292  0.000000  0.000000
293  0.000000  0.000000
294  0.000000  0.000000
295  0.000000  0.000000
296  0.000000  0.000000
297  0.000000  0.000000
298  0.000000  0.000000
299  0.000000  0.000000
300  0.000000  0.000000
301  0.000000  0.000000
302  0.000000  0.000000
303  0.000000  0.000000
304  0.000000  0.000000
305  0.000000  0.000000
306  0.000000  0.000000
307  0.000000  0.000000
308  0.000000  0.000000
309  0.000000  0.000000
310  0.000000  0.000000
311  0.011688  0.005160
312  0.000000  0.000000
313  0.000000  0.000000
314  0.000000  0.000000
315  0.000000  0.000000
316  0.000000  0.000000
317  0.000000  0.000000
318  0.000000  0.000000
319  0.000000  0.000000
320  0.000000  0.000000
321  0.000000  0.000000
322  0.000000  0.000000
323  0.000000  0.000000
324  0.000000  0.000000
325  0.000000  0.000000
326  0.000000  0.000000
327  0.000000  0.000000
328  0.000000  0.000000
329  0.000000  0.000000
330  0.000000  0.000000
331  0.000000  0.000000
332  0.000000  0.000000
333  0.000000  0.000000
334  0.000000  0.000000
335  0.013363  0.008459
336  0.000000  0.000000
337  0.000000  0.000000
338  0.000000  0.000000
339  0.000000  0.000000
340  0.000000  0.000000
341  0.000000  0.000000
342  0.000000  0.000000
343  0.000000  0.000000
344  0.000000  0.000000
345  0.000000  0.000000
346  0.000000  0.000000
347  0.000000  0.000000
348  0.000000  0.000000
349  0.000000  0.000000
350  0.000000  0.000000
351  0.000000  0.000000
352  0.000000  0.000000
353  0.000000  0.000000
354  0.000000  0.000000
355  0.000000  0.000000
356  0.000000  0.000000
357  0.000000  0.000000
358  0.000000  0.000000
359  0.013852  0.013382
--------------------------------------------------
